tests/data/Mendoza.raw
0,   100.00, 33, 0, 1, 50.00     / PSS(R)E-33.4    SUN, JAN 10 2021  13:29
PICO HÁBIL DIURNO VERANO 2015 DEMANDA SADI 26000 MW

    10,'NPMADRYN    ', 500.0000,1,   1,   6,   1,0.99601,  19.0312,1.10000,0.90000,1.10000,0.90000
    11,'MADRY.CL    ', 500.0000,4,   1,   6,   1,1.00000,   0.0000,1.10000,0.90000,1.10000,0.90000
    12,'SCN_500     ', 500.0000,1,  21,   2,  10,1.01889,  20.0036,1.10000,0.90000,1.10000,0.90000
    15,'RSCRUZ      ', 500.0000,1,  21,  54,  10,1.01572,  20.8148,1.10000,0.90000,1.10000,0.90000
    19,'ESPERANZ    ', 500.0000,1,  21,  54,  10,1.00974,  21.2079,1.10000,0.90000,1.10000,0.90000
    20,'GARACCB1    ', 525.0000,4,  20,  49,  10,1.00000,   0.0000,1.10000,0.90000,1.10000,0.90000
    22,'GARACCB2    ', 525.0000,4,  20,  49,  10,1.00000,   0.0000,1.10000,0.90000,1.10000,0.90000
    30,'ITA         ', 525.0000,4,  20,  49,  10,1.00000,   0.0000,1.10000,0.90000,1.10000,0.90000
   100,'FUTAL330    ', 330.0000,1,  21,  59,  10,1.10406,  40.0749,1.10000,0.90000,1.10000,0.90000
   102,'FUTAHI01    ',  13.8000,2,  21,  59,   6,1.00000,  46.3451,1.10000,0.90000,1.10000,0.90000
   104,'FUTAHI02    ',  13.8000,2,  21,  59,   6,1.00000,  46.3451,1.10000,0.90000,1.10000,0.90000
   106,'FUTAHI03    ',  13.8000,2,  21,  59,   6,1.00000,  46.3451,1.10000,0.90000,1.10000,0.90000
   108,'FUTAHI04    ',  13.8000,2,  21,  59,   6,1.00000,  46.3451,1.10000,0.90000,1.10000,0.90000
   110,'FUTA33-2    ',  33.0000,4,  21,  59,  10,1.00000,   0.0000,1.10000,0.90000,1.10000,0.90000
   112,'FUTA33-1    ',  33.0000,1,  21,  59,  10,1.04545,  46.3451,1.10000,0.90000,1.10000,0.90000
   115,'R.TURBIO    ', 220.0000,1,  21,  54,   1,1.03453,  25.6040,1.10000,0.90000,1.10000,0.90000
   117,'ESPERANZ    ', 220.0000,1,  21,  54,   1,1.03571,  22.1549,1.10000,0.90000,1.10000,0.90000
   118,'RGALLEGO    ', 220.0000,1,  21,  54,   1,1.03355,  21.0701,1.10000,0.90000,1.10000,0.90000
   120,'C-LEUFU     ', 330.0000,4,  21,  59,  10,1.00000,   0.0000,1.10000,0.90000,1.10000,0.90000
   190,'ALTG09CC    ',  10.5000,2,  21,  58,   8,1.00206,  27.5705,1.10000,0.90000,1.10000,0.90000
   191,'ALTG10CC    ',  10.5000,2,  21,  58,   8,1.00206,  27.5705,1.10000,0.90000,1.10000,0.90000
   192,'ALTV11CC    ',  10.5000,2,  21,  58,   8,1.00399,  26.5008,1.10000,0.90000,1.10000,0.90000
   193,'SERIE DT    ', 132.0000,1,  21,  58,   2,0.99989,  21.0148,1.10000,0.90000,1.10000,0.90000
   200,'PMADR330    ', 330.0000,1,  21,  51,   1,0.99749,  22.1790,1.10000,0.90000,1.10000,0.90000
   201,'AL-FIAT1    ',  13.2000,4,  21,  58,   4,1.00000,   0.0000,1.10000,0.90000,1.10000,0.90000
   202,'AL-FIAT2    ',  13.2000,4,  21,  58,   4,1.00000,   0.0000,1.10000,0.90000,1.10000,0.90000
   203,'AL-FIAT3    ',  13.2000,4,  21,  58,   4,1.00000,   0.0000,1.10000,0.90000,1.10000,0.90000
   204,'AL-FIAT4    ',  13.2000,4,  21,  58,   4,1.00000,   0.0000,1.10000,0.90000,1.10000,0.90000
   205,'AL-FRAM5    ',  11.0000,4,  21,  58,   4,1.00000,   0.0000,1.10000,0.90000,1.10000,0.90000
   206,'AL-FRAM6    ',  11.0000,4,  21,  58,   4,1.00000,   0.0000,1.10000,0.90000,1.10000,0.90000
   207,'ALCC-TG7    ',  11.0000,2,  21,  58,   8,1.01215,  23.7751,1.10000,0.90000,1.10000,0.90000
   208,'ALCC-TG8    ',  11.0000,2,  21,  58,   8,1.01215,  23.7751,1.10000,0.90000,1.10000,0.90000
   209,'ALCC-TV1    ',  11.0000,2,  21,  58,   8,1.01324,  22.9835,1.10000,0.90000,1.10000,0.90000
   210,'APPA330A    ', 330.0000,1,  21,  58,   2,0.99659,  22.1315,1.10000,0.90000,1.10000,0.90000
   211,'APPA330B    ', 330.0000,1,  21,  58,   2,0.99656,  22.1367,1.10000,0.90000,1.10000,0.90000
   212,'AL-CE0A2    ',  33.0000,1,  21,  58,   2,1.00016,  18.8059,1.10000,0.90000,1.10000,0.90000
   213,'APPA330C    ', 330.0000,1,  21,  58,   2,0.99657,  22.1374,1.10000,0.90000,1.10000,0.90000
   214,'AL-CE0B     ',  33.0000,4,  21,  58,   2,1.00000,   0.0000,1.10000,0.90000,1.10000,0.90000
   216,'AL-CE0A4    ',  33.0000,1,  21,  58,   2,1.00000,  18.7998,1.10000,0.90000,1.10000,0.90000
   217,'AL-CE0A5    ',  33.0000,1,  21,  58,   2,0.99992,  18.7916,1.10000,0.90000,1.10000,0.90000
   218,'AL-CE0A3    ',  33.0000,1,  21,  58,   2,1.00008,  18.8028,1.10000,0.90000,1.10000,0.90000
   219,'AEG         ',  13.2000,2,  21,  58,   4,1.00008,  18.8028,1.10000,0.90000,1.10000,0.90000
   220,'PMADR132    ', 132.0000,1,  21,  51,   1,1.04169,  20.9709,1.10000,0.90000,1.10000,0.90000
   222,'AL-CE0A1    ',  33.0000,1,  21,  58,   2,1.02397,  21.1314,1.10000,0.90000,1.10000,0.90000
   224,'NPMAD330    ', 330.0000,1,  21,  42,  10,0.99759,  22.1610,1.10000,0.90000,1.10000,0.90000
   227,'SERV AUX    ',  33.0000,1,  21,  58,   2,0.99999,  18.7982,1.10000,0.90000,1.10000,0.90000
   230,'DGPAL132    ', 132.0000,1,  21,  52,  10,1.03572,  20.9146,1.10000,0.90000,1.10000,0.90000
   231,'PM-GEN      ',  33.0000,1,  21,  52,  10,1.01917,  18.6842,1.10000,0.90000,1.10000,0.90000
   232,'DGPALU33    ',  33.0000,2,  21,  52,   1,1.01917,  18.6842,1.10000,0.90000,1.10000,0.90000
   234,'PM-GEN      ',  13.2000,2,  21,  52,   4,0.99919,  18.6842,1.10000,0.90000,1.10000,0.90000
   235,'DGPA13-1    ',  13.2000,1,  21,  52,  10,1.01728,  18.5007,1.10000,0.90000,1.10000,0.90000
   237,'DGPA13-2    ',  13.2000,1,  21,  52,  10,1.01728,  18.5007,1.10000,0.90000,1.10000,0.90000
   240,'TRELW132    ', 132.0000,1,  21,  52,  10,1.00258,  22.3573,1.10000,0.90000,1.10000,0.90000
   242,'TREW13.2    ',  13.2000,2,  21,  52,   1,0.99653,  17.7548,1.10000,0.90000,1.10000,0.90000
   243,'RAWSON      ', 132.0000,1,  21,  52,   1,1.00363,  22.8719,1.10000,0.90000,1.10000,0.90000
   244,'TRELEW33    ',  33.0000,1,  21,  52,   1,1.00776,  18.7337,1.10000,0.90000,1.10000,0.90000
   245,'PM_EOL      ', 132.0000,4,  21,  52,   1,1.00000,   0.0000,1.10000,0.90000,1.10000,0.90000
   250,'AMEGH132    ', 132.0000,1,  21,  52,   1,1.04928,  26.3126,1.10000,0.90000,1.10000,0.90000
   251,'AMEGHI01    ',  13.2000,2,  21,  52,   6,1.05000,  29.9554,1.10000,0.90000,1.10000,0.90000
   252,'AMEGHI02    ',  13.2000,2,  21,  52,   6,1.05000,  29.9554,1.10000,0.90000,1.10000,0.90000
   258,'PER-132     ', 132.0000,1,  21,  51,   1,1.00548,  23.2290,1.10000,0.90000,1.10000,0.90000
   259,'AL-CEB      ', 132.0000,1,  21,  58,   2,1.00000,  21.0263,1.10000,0.90000,1.10000,0.90000
   260,'TR2 FICT    ',   1.0000,1,  21,  58,   2,0.97988,  21.1314,1.10000,0.90000,1.10000,0.90000
   261,'AL-CEA      ', 132.0000,1,  21,  58,   2,1.00009,  21.0083,1.10000,0.90000,1.10000,0.90000
   262,'TR1 FICT    ',   1.0000,1,  21,  58,   2,0.98074,  21.0261,1.10000,0.90000,1.10000,0.90000
   263,'TR3 FICT    ',   1.0000,1,  21,  58,   2,0.97980,  21.1476,1.10000,0.90000,1.10000,0.90000
   264,'FUTAL132    ', 132.0000,1,  21,  59,  10,1.03042,  37.2629,1.10000,0.90000,1.10000,0.90000
   265,'AL-CEB0C    ',  33.0000,1,  21,  58,   2,1.02389,  21.1476,1.10000,0.90000,1.10000,0.90000
   266,'ESQUE132    ', 132.0000,1,  21,  59,  10,1.02435,  36.6997,1.10000,0.90000,1.10000,0.90000
   268,'SERIE AT    ', 132.0000,1,  21,  58,   2,1.00007,  20.9974,1.10000,0.90000,1.10000,0.90000
   269,'SERIE BT    ', 132.0000,1,  21,  58,   2,1.00007,  20.9974,1.10000,0.90000,1.10000,0.90000
   271,'ELCOHIUE    ', 132.0000,1,  21,  59,   1,1.00879,  35.5780,1.10000,0.90000,1.10000,0.90000
   275,'LB_EOL      ', 132.0000,1,  21,  51,   1,1.04690,  22.9628,1.10000,0.90000,1.10000,0.90000
   280,'GOLONDRI    ',  13.2000,1,  21,  59,  10,0.97395,  28.0933,1.10000,0.90000,1.10000,0.90000
   281,'LIMRN-CH    ',  13.2000,1,  21,  59,  10,0.89866,  27.8319,1.10000,0.90000,1.10000,0.90000
   282,'ELBOLSON    ',  13.2000,1,  21,  59,   1,0.84253,  27.6067,1.10000,0.90000,1.10000,0.90000
   300,'SGRAN132    ', 132.0000,1,  21,  26,   1,0.93634,  12.7996,1.10000,0.90000,1.10000,0.90000
   304,'SGRA13.2    ',  13.2000,4,  21,  26,   4,1.00000,   0.0000,1.10000,0.90000,1.10000,0.90000
   310,'PCOLO132    ', 132.0000,1,  21,  26,  10,0.93144,  12.3835,1.10000,0.90000,1.10000,0.90000
   315,'RSCRUZ      ', 132.0000,1,  21,  53,   1,1.02820,  20.7444,1.10000,0.90000,1.10000,0.90000
   316,'S.JULIAN    ', 132.0000,4,  21,  53,   1,1.00000,   0.0000,1.10000,0.90000,1.10000,0.90000
   317,'M.ESPEJO    ', 132.0000,4,  21,  53,   1,1.00000,   0.0000,1.10000,0.90000,1.10000,0.90000
   318,'GREGORES    ', 132.0000,4,  21,  53,   1,1.00000,   0.0000,1.10000,0.90000,1.10000,0.90000
   320,'SANOE132    ', 132.0000,1,  21,  26,   1,0.85633,   6.0792,1.10000,0.90000,1.10000,0.90000
   322,'SANES132    ', 132.0000,1,  21,  26,   1,0.84359,   4.9029,1.10000,0.90000,1.10000,0.90000
   330,'VIEDM132    ', 132.0000,1,  21,  26,   1,0.78228,  -0.7407,1.10000,0.90000,1.10000,0.90000
   332,'VIED13.2    ',  13.2000,1,  21,  26,   1,0.91889,  -8.5386,1.10000,0.90000,1.10000,0.90000
   334,'VIEDMA33    ',  33.0000,1,  21,  26,  10,0.88361,  -6.0861,1.10000,0.90000,1.10000,0.90000
   400,'C.RIV.A1    ', 132.0000,1,  21,  52,  10,1.03542,  23.1988,1.10000,0.90000,1.10000,0.90000
   401,'C.RIV.A     ', 132.0000,1,  21,  54,  10,1.03543,  23.1992,1.10000,0.90000,1.10000,0.90000
   406,'CRI22/26    ',  13.2000,2,  21,  54,   4,1.03543,  23.1992,1.10000,0.90000,1.10000,0.90000
   408,'C.RIV.A1    ',  10.4000,1,  21,  54,   1,0.99799,  19.7779,1.10000,0.90000,1.10000,0.90000
   409,'CRI 21      ',  10.4000,2,  21,  54,   4,0.99799,  19.7776,1.10000,0.90000,1.10000,0.90000
   410,'C.RIV.A1    ',  66.0000,2,  21,  54,   1,1.01614,  22.1618,1.10000,0.90000,1.10000,0.90000
   420,'C.RIV.A1    ',  33.0000,2,  21,  54,   1,1.04130,  20.2650,1.10000,0.90000,1.10000,0.90000
   422,'CRI 23      ',  13.8000,2,  21,  54,   4,0.99463,  19.6153,1.10000,0.90000,1.10000,0.90000
   437,'CRI27/28    ',  13.8000,2,  21,  54,   8,1.05000,  24.9966,1.10000,0.90000,1.10000,0.90000
   438,'CRIVTV25    ',  13.8000,2,  21,  54,   8,1.03543,  23.1992,1.10000,0.90000,1.10000,0.90000
   440,'VHERM132    ', 132.0000,2,  21,  52,   1,1.01238,  21.7227,1.10000,0.90000,1.10000,0.90000
   441,'SAN JOSE    ', 132.0000,1,  21,  53,   1,0.97950,  18.4250,1.10000,0.90000,1.10000,0.90000
   442,'CNEGR132    ', 132.0000,2,  21,  52,   1,1.00538,  21.4037,1.10000,0.90000,1.10000,0.90000
   444,'PAMCA132    ', 132.0000,2,  21,  52,   1,1.01992,  22.1578,1.10000,0.90000,1.10000,0.90000
   445,'TORDI132    ', 132.0000,2,  21,  52,   1,1.01826,  22.0936,1.10000,0.90000,1.10000,0.90000
   446,'LPER1132    ', 132.0000,1,  21,  53,   1,1.01226,  23.9866,1.10000,0.90000,1.10000,0.90000
   447,'LPER2132    ', 132.0000,4,  21,  53,   1,1.00000,   0.0000,1.10000,0.90000,1.10000,0.90000
   448,'LASHE132    ', 132.0000,2,  21,  53,   1,0.99529,  20.4270,1.10000,0.90000,1.10000,0.90000
   449,'DIADEMA     ', 132.0000,1,  21,  52,   1,1.03401,  23.1741,1.10000,0.90000,1.10000,0.90000
   450,'BSM132R     ', 132.0000,2,  21,  52,   1,1.03897,  23.2824,1.10000,0.90000,1.10000,0.90000
   451,'DIADEMA     ',  34.5000,1,  21,  52,   1,1.03913,  23.6854,1.10000,0.90000,1.10000,0.90000
   452,'BSMA13.2    ',  13.2000,1,  21,  52,   1,0.98998,  16.5211,1.10000,0.90000,1.10000,0.90000
   453,'DIADEMA     ',   0.4000,2,  21,  54,  11,1.05000,  24.8103,1.10000,0.90000,1.10000,0.90000
   454,'BSMART33    ',  33.0000,1,  21,  52,   1,1.00955,  18.6960,1.10000,0.90000,1.10000,0.90000
   455,'AIKE        ', 132.0000,1,  21,  54,   1,0.98546,  19.0445,1.10000,0.90000,1.10000,0.90000
   456,'ELRETIRO    ', 132.0000,1,  21,  54,   1,0.97374,  18.1457,1.10000,0.90000,1.10000,0.90000
   457,'C.NEGRO.OP  ', 132.0000,1,  21,  54,   1,0.97351,  18.1309,1.10000,0.90000,1.10000,0.90000
   459,'PT1-132R    ', 132.0000,2,  21,  53,   1,1.03596,  19.9585,1.10000,0.90000,1.10000,0.90000
   460,'PT1-132M    ', 132.0000,1,  21,  54,   1,1.03597,  19.9594,1.10000,0.90000,1.10000,0.90000
   461,'SCN_132     ', 132.0000,1,  21,  53,  10,1.03607,  19.9564,1.10000,0.90000,1.10000,0.90000
   462,'PTRUN235    ',  35.0000,1,  21,  53,   1,1.00693,  21.6611,1.10000,0.90000,1.10000,0.90000
   463,'PTRUN35R    ',  35.0000,2,  21,  53,   1,1.00693,  21.6607,1.10000,0.90000,1.10000,0.90000
   464,'PTRUTG24    ',  13.8000,2,  21,  53,   4,0.96822,  21.7073,1.10000,0.90000,1.10000,0.90000
   466,'PTRUTG25    ',  10.5000,2,  21,  54,   4,0.96823,  21.7408,1.10000,0.90000,1.10000,0.90000
   467,'PCR         ', 132.0000,1,  21,  53,   1,1.03602,  19.9336,1.10000,0.90000,1.10000,0.90000
   468,'PTRUTG23    ',  10.5000,2,  21,  53,   4,1.02000,  25.0101,1.10000,0.90000,1.10000,0.90000
   469,'SCN_NEU     ',   1.0000,1,  21,  54,  10,0.99706,  19.9527,1.10000,0.90000,1.10000,0.90000
   470,'PT2--132    ', 132.0000,1,  21,  53,  10,1.03566,  19.9362,1.10000,0.90000,1.10000,0.90000
   472,'PT2-6.9     ',  35.0000,1,  21,  53,   1,1.02991,  19.2522,1.10000,0.90000,1.10000,0.90000
   475,'HUEMUL      ',  35.0000,1,  21,  53,   1,1.05004,  24.3492,1.10000,0.90000,1.10000,0.90000
   476,'CT.HUEMUL   ',   0.4000,2,  21,  53,   1,1.05000,  24.5114,1.10000,0.90000,1.10000,0.90000
   479,'SCN_TER     ',  13.2000,1,  21,  54,  10,1.04238,  19.9527,1.10000,0.90000,1.10000,0.90000
   480,'PDES132M    ', 132.0000,1,  21,  53,   1,1.04234,  18.5557,1.10000,0.90000,1.10000,0.90000
   481,'PDES132R    ', 132.0000,4,  21,  53,   1,1.00000,   0.0000,1.10000,0.90000,1.10000,0.90000
   482,'C.MORO      ', 132.0000,4,  21,  53,   1,1.00000,   0.0000,1.10000,0.90000,1.10000,0.90000
   483,'PS.A.BIEDMA ', 132.0000,1,  21,  53,   1,1.04470,  19.1884,1.10000,0.90000,1.10000,0.90000
   490,'CTPAT132    ', 132.0000,1,  21,  52,  10,1.04059,  23.6767,1.10000,0.90000,1.10000,0.90000
   491,'CTPATG01    ',  11.5000,2,  21,  52,   8,1.05000,  27.8025,1.10000,0.90000,1.10000,0.90000
   492,'CTPATG02    ',  11.5000,2,  21,  52,   8,1.05000,  27.8025,1.10000,0.90000,1.10000,0.90000
   493,'CTPATV01    ',  11.5000,2,  21,  52,   8,1.05000,  26.5158,1.10000,0.90000,1.10000,0.90000
   501,'PMD.TER1    ',  33.0000,1,  21,  42,  10,0.99480,  -7.5111,1.10000,0.90000,1.10000,0.90000
   504,'RSCRUZ      ',  13.2000,1,  21,  53,   1,1.02823,  20.7498,1.10000,0.90000,1.10000,0.90000
   510,'PMD1.TER    ',  34.5000,1,  21,  42,  10,1.04774,  21.1494,1.10000,0.90000,1.10000,0.90000
   511,'PMD2.TER    ',  34.5000,1,  21,  42,  10,1.04698,  21.1272,1.10000,0.90000,1.10000,0.90000
   514,'CRITER10    ',  13.8000,1,  21,  54,  10,1.01474,  21.9962,1.10000,0.90000,1.10000,0.90000
   515,'CRITER11    ',  13.8000,1,  21,  54,  10,1.01411,  22.0495,1.10000,0.90000,1.10000,0.90000
   516,'ESQ1.TER    ',  13.8000,1,  21,  59,  10,0.99208,  32.8582,1.10000,0.90000,1.10000,0.90000
   518,'FUT1.TER    ',  34.5000,1,  21,  59,  10,1.02973,  36.9481,1.10000,0.90000,1.10000,0.90000
   520,'ESQUEL33    ',  33.0000,1,  21,  59,   1,1.03816,  32.9834,1.10000,0.90000,1.10000,0.90000
   522,'ELCOIHUE    ',  33.0000,1,  21,  59,   1,0.97819,  32.2444,1.10000,0.90000,1.10000,0.90000
   523,'RTURTV1     ',  11.0000,2,  21,  54,   5,1.00000,  29.6295,1.10000,0.90000,1.10000,0.90000
   524,'GOLONDRI    ',  33.0000,1,  21,  59,   1,0.94352,  30.3618,1.10000,0.90000,1.10000,0.90000
   525,'RTURTV2     ',  11.0000,4,  21,  54,   5,1.00000,   0.0000,1.10000,0.90000,1.10000,0.90000
   530,'PM_EOL_01   ',  33.0000,4,  21,  52,   1,1.00000,   0.0000,1.10000,0.90000,1.10000,0.90000
   531,'PM_EOL_01   ',  33.0000,4,  21,  52,   1,1.00000,   0.0000,1.10000,0.90000,1.10000,0.90000
   545,'ESP.TER1    ',  33.0000,1,  21,  54,   1,1.02299,  22.2324,1.10000,0.90000,1.10000,0.90000
   546,'ESP.TER2    ',  33.0000,1,  21,  54,   1,1.06901,  21.4289,1.10000,0.90000,1.10000,0.90000
   547,'RGALLEGO    ',  33.0000,1,  21,  54,   1,1.02903,  21.0701,1.10000,0.90000,1.10000,0.90000
   548,'RGA.TER1    ',  13.2000,1,  21,  54,   1,1.02903,  21.0701,1.10000,0.90000,1.10000,0.90000
   552,'LB_EOL_02   ',  33.0000,4,  21,  51,   1,1.00000,   0.0000,1.10000,0.90000,1.10000,0.90000
   553,'LB_EOL_02   ',  33.0000,4,  21,  51,   1,1.00000,   0.0000,1.10000,0.90000,1.10000,0.90000
   556,'LB_EOL_04   ',  33.0000,1,  21,  51,   1,1.04121,  27.1583,1.10000,0.90000,1.10000,0.90000
   557,'LB_EOL_04   ',  33.0000,1,  21,  51,   1,1.04423,  27.5752,1.10000,0.90000,1.10000,0.90000
   570,'PER-33      ',  33.0000,1,  21,  42,  10,0.95452,  25.5996,1.10000,0.90000,1.10000,0.90000
   571,'PER-33      ',  33.0000,1,  21,  42,  10,0.95641,  25.7072,1.10000,0.90000,1.10000,0.90000
   661,'LPERTG01    ',  11.0000,2,  21,  53,   4,1.02000,  28.9204,1.10000,0.90000,1.10000,0.90000
   662,'LPERTG02    ',  11.0000,2,  21,  53,   4,1.02000,  28.9204,1.10000,0.90000,1.10000,0.90000
   670,'RCHICOG1    ',  13.2000,4,  21,  53,   4,1.00000,   0.0000,1.10000,0.90000,1.10000,0.90000
   671,'RCHICOG2    ',  13.2000,4,  21,  53,   4,1.00000,   0.0000,1.10000,0.90000,1.10000,0.90000
   673,'RCHICOG3    ',  13.2000,4,  21,  53,   4,1.00000,   0.0000,1.10000,0.90000,1.10000,0.90000
   674,'RCHICOG4    ',  13.2000,4,   1,   1,   4,1.00000,   0.0000,1.10000,0.90000,1.10000,0.90000
   720,'ESPERANZ    ', 132.0000,1,  21,  54,   1,1.04722,  21.4845,1.10000,0.90000,1.10000,0.90000
   721,'CALAFATE    ', 132.0000,1,  21,  54,   1,1.03498,  19.4988,1.10000,0.90000,1.10000,0.90000
   901,'PMD.NEU1    ',   1.0000,1,  21,   2,  10,0.99480,  22.4889,1.10000,0.90000,1.10000,0.90000
   910,'PMD1.NEU    ',   1.0000,1,  21,  42,  10,1.04774,  21.1494,1.10000,0.90000,1.10000,0.90000
   911,'PMD2.NEU    ',   1.0000,1,  21,  42,  10,1.04698,  21.1272,1.10000,0.90000,1.10000,0.90000
   914,'CRINEU10    ',   1.0000,1,  21,  54,  10,1.01474,  21.9962,1.10000,0.90000,1.10000,0.90000
   915,'CRINEU11    ',   1.0000,1,  21,  54,  10,1.01411,  22.0495,1.10000,0.90000,1.10000,0.90000
   916,'ESQ1.NEU    ',   1.0000,1,  21,  59,  10,0.99208,  32.8582,1.10000,0.90000,1.10000,0.90000
   918,'FUT1.NEU    ',   1.0000,1,  21,  59,  10,1.02973,  36.9481,1.10000,0.90000,1.10000,0.90000
   923,'DGP.NEU1    ',   1.0000,1,  21,  42,  10,0.97305,  18.5007,1.10000,0.90000,1.10000,0.90000
   924,'DGP.NEU2    ',   1.0000,1,  21,  42,  10,0.97305,  18.5007,1.10000,0.90000,1.10000,0.90000
   930,'VIE.NEU1    ',   1.0000,1,  21,  26,  10,0.88361,  -6.0861,1.10000,0.90000,1.10000,0.90000
   931,'VIE.NEU2    ',   1.0000,1,  21,  26,  10,0.88361,  -6.0861,1.10000,0.90000,1.10000,0.90000
   933,'RSCR.NEU1   ',   1.0000,1,  21,  53,  10,1.02823,  20.7498,1.10000,0.90000,1.10000,0.90000
   945,'ESP.NEU1    ',   1.0000,1,  21,  54,  10,0.97851,  22.2324,1.10000,0.90000,1.10000,0.90000
   946,'ESP.NEU2    ',   1.0000,1,  21,  54,  10,1.02253,  21.4289,1.10000,0.90000,1.10000,0.90000
   948,'RGA.NEU1    ',   1.0000,1,  21,  54,  10,0.98424,  21.0701,1.10000,0.90000,1.10000,0.90000
   950,'BSM.NEU1    ',   1.0000,1,  21,  52,  10,1.01148,  18.6813,1.10000,0.90000,1.10000,0.90000
   951,'BSM.NEU2    ',   1.0000,1,  21,  52,  10,1.01150,  18.6653,1.10000,0.90000,1.10000,0.90000
   960,'TRW.NEU1    ',   1.0000,1,  21,  52,  10,0.96033,  18.5301,1.10000,0.90000,1.10000,0.90000
   961,'TRW.NEU2    ',   1.0000,1,  21,  52,  10,0.96072,  18.5542,1.10000,0.90000,1.10000,0.90000
   962,'TRW.NEU3    ',   1.0000,1,  21,  52,  10,1.05633,  18.5886,1.10000,0.90000,1.10000,0.90000
   965,'CRI.NEU1    ',   1.0000,1,  21,  54,  10,0.99484,  20.1260,1.10000,0.90000,1.10000,0.90000
   966,'CRI.NEU5    ',   1.0000,1,  21,  54,  10,0.99503,  20.1483,1.10000,0.90000,1.10000,0.90000
   967,'CRI.NEU5    ',   1.0000,1,  21,  54,  10,0.99536,  20.1543,1.10000,0.90000,1.10000,0.90000
   970,'PT1.NEU1    ',   1.0000,1,  21,  53,  10,0.96822,  21.7073,1.10000,0.90000,1.10000,0.90000
   971,'PT1.NEU2    ',   1.0000,1,  21,  53,  10,0.96823,  21.7408,1.10000,0.90000,1.10000,0.90000
  1000,'CHOCON      ', 500.0000,1,   1,   2,  10,1.03363,  18.6039,1.10000,0.90000,1.10000,0.90000
  1002,'P.AGUILA    ', 500.0000,1,   1,   2,  10,1.02658,  23.8915,1.10000,0.90000,1.10000,0.90000
  1004,'CHOCONOE    ', 500.0000,1,   1,   2,  10,1.03369,  18.6140,1.10000,0.90000,1.10000,0.90000
  1006,'CHOE.CH     ', 500.0000,1,   1,   2,  10,1.00766,   7.7921,1.10000,0.90000,1.10000,0.90000
...
0 / END OF BUS DATA, BEGIN LOAD DATA
   115,'1 ',1,  21,  53,    12.000,     4.000,     0.000,     0.000,     0.000,     0.000,   1,1,0
   118,'1 ',1,  21,  53,    26.900,    11.100,     0.000,     0.000,     0.000,     0.000,   1,1,0
   193,'1 ',1,  21,  58,   183.000,   103.700,     0.000,     0.000,     0.000,     0.000,   2,1,0
   214,'1 ',1,  21,  58,    72.000,    40.800,     0.000,     0.000,     0.000,     0.000,   2,1,0
   217,'1 ',1,  21,  58,   130.000,    73.700,     0.000,     0.000,     0.000,     0.000,   2,1,0
   222,'1 ',0,  21,  58,    72.000,    40.800,     0.000,     0.000,     0.000,     0.000,   2,1,0
   227,'1 ',1,  21,  58,    26.000,    12.600,     0.000,     0.000,     0.000,     0.000,   3,1,0
   232,'1 ',1,  21,  52,    30.000,    17.500,     0.000,     0.000,     0.000,     0.000,   1,1,0
   232,'2 ',0,  21,  52,     8.641,     4.061,     0.000,     0.000,     0.000,     0.000,   1,1,0
   232,'3 ',0,  21,  52,     2.887,     1.610,     0.000,     0.000,     0.000,     0.000,   1,1,0
   242,'1 ',0,  21,  52,     5.458,     2.797,     0.000,     0.000,     0.000,     0.000,   1,1,0
   242,'2 ',0,  21,  52,    12.621,     5.964,     0.000,     0.000,     0.000,     0.000,   1,1,0
   242,'3 ',1,  21,  52,    15.271,     9.663,     0.000,     0.000,     0.000,     0.000,   1,1,0
   243,'1 ',1,  21,  52,    15.000,     7.000,     0.000,     0.000,     0.000,     0.000,   1,1,0
   244,'1 ',1,  21,  52,    29.729,    18.810,     0.000,     0.000,     0.000,     0.000,   1,1,0
   250,'1 ',1,  21,  52,     1.000,     0.459,     0.000,     0.000,     0.000,     0.000,   1,1,0
   250,'2 ',0,  21,  52,     0.000,     0.000,     0.000,     0.000,     0.000,     0.000,   1,1,0
   259,'1 ',1,  21,  58,    20.000,    11.000,     0.000,     0.000,     0.000,     0.000,   3,1,0
   265,'1 ',0,  21,  58,    72.000,    40.800,     0.000,     0.000,     0.000,     0.000,   2,1,0
   268,'1 ',1,  21,  58,   172.000,    97.500,     0.000,     0.000,     0.000,     0.000,   2,1,0
   269,'1 ',1,  21,  58,   172.000,    97.500,     0.000,     0.000,     0.000,     0.000,   2,1,0
   282,'1 ',1,  21,  52,     2.077,     0.953,     0.000,     0.000,     0.000,     0.000,   1,1,0
   300,'1 ',1,  21,  26,     4.000,     1.809,     0.000,     0.000,     0.000,     0.000,   1,1,0
   310,'1 ',1,  21,  26,    10.000,     2.500,     0.000,     0.000,     0.000,     0.000,   2,1,0
   315,'1 ',1,  21,  54,     1.000,     0.300,     0.000,     0.000,     0.000,     0.000,   1,1,0
   316,'1 ',0,  21,  53,     4.833,     1.450,     0.000,     0.000,     0.000,     0.000,   1,1,0
   317,'1 ',0,  21,  53,    10.000,     3.000,     0.000,     0.000,     0.000,     0.000,   2,1,0
   318,'1 ',0,  21,  53,     1.878,     0.564,     0.000,     0.000,     0.000,     0.000,   1,1,0
   320,'1 ',1,  21,  26,     9.500,     4.000,     0.000,     0.000,     0.000,     0.000,   1,1,0
   322,'1 ',1,  21,  26,    11.500,     5.791,     0.000,     0.000,     0.000,     0.000,   1,1,0
   332,'1 ',1,  21,  26,    19.500,     6.500,     0.000,     0.000,     0.000,     0.000,   1,1,0
   408,'1 ',0,  21,  52,     0.000,     0.000,     0.000,     0.000,     0.000,     0.000,   1,1,0
   409,'1 ',1,  21,  52,    12.805,     5.463,     0.000,     0.000,     0.000,     0.000,   1,1,0
   409,'2 ',1,  21,  52,     7.683,     3.159,     0.000,     0.000,     0.000,     0.000,   1,1,0
   409,'3 ',0,  21,  52,     2.207,     0.617,     0.000,     0.000,     0.000,     0.000,   1,1,0
   410,'1 ',1,  21,  52,    11.780,     8.366,     0.000,     0.000,     0.000,     0.000,   1,1,0
   410,'2 ',0,  21,  52,    14.099,     6.455,     0.000,     0.000,     0.000,     0.000,   1,1,0
   410,'3 ',0,  21,  52,     0.134,     0.551,     0.000,     0.000,     0.000,     0.000,   1,1,0
   420,'1 ',1,  21,  52,    29.024,    15.109,     0.000,     0.000,     0.000,     0.000,   1,1,0
   420,'2 ',0,  21,  52,    38.658,    17.930,     0.000,     0.000,     0.000,     0.000,   1,1,0
   420,'3 ',0,  21,  52,     4.900,     2.000,     0.000,     0.000,     0.000,     0.000,   1,1,0
   422,'1 ',1,  21,  52,     8.707,     0.256,     0.000,     0.000,     0.000,     0.000,   1,1,0
   440,'1 ',1,  21,  52,     4.600,     2.800,     0.000,     0.000,     0.000,     0.000,   1,1,0
   440,'2 ',0,  21,  52,    12.500,     4.000,     0.000,     0.000,     0.000,     0.000,   1,1,0
   440,'3 ',0,  21,  52,    14.988,     4.265,     0.000,     0.000,     0.000,     0.000,   1,1,0
   441,'1 ',1,  21,  53,     6.000,     2.143,     0.000,     0.000,     0.000,     0.000,   1,1,0
   442,'1 ',1,  21,  52,     7.700,     6.000,     0.000,     0.000,     0.000,     0.000,   1,1,0
   442,'2 ',0,  21,  52,     5.571,     2.551,     0.000,     0.000,     0.000,     0.000,   1,1,0
   442,'3 ',0,  21,  52,     2.500,     1.428,     0.000,     0.000,     0.000,     0.000,   1,1,0
   444,'1 ',1,  21,  52,    13.500,     4.000,     0.000,     0.000,     0.000,     0.000,   1,1,0
   444,'2 ',0,  21,  52,    12.166,     5.570,     0.000,     0.000,     0.000,     0.000,   1,1,0
   444,'3 ',0,  21,  52,     3.500,     0.658,     0.000,     0.000,     0.000,     0.000,   1,1,0
   445,'1 ',1,  21,  52,     7.500,     3.434,     0.000,     0.000,     0.000,     0.000,   1,1,0
   445,'2 ',0,  21,  52,     9.096,     4.165,     0.000,     0.000,     0.000,     0.000,   1,1,0
   445,'3 ',0,  21,  52,     3.500,     0.000,     0.000,     0.000,     0.000,     0.000,   1,1,0
   446,'1 ',1,  21,  53,    22.200,    13.600,     0.000,     0.000,     0.000,     0.000,   1,1,0
   447,'1 ',0,  21,  53,    23.200,    11.800,     0.000,     0.000,     0.000,     0.000,   1,1,0
   447,'2 ',0,  21,  53,    27.288,    12.494,     0.000,     0.000,     0.000,     0.000,   1,1,0
   447,'3 ',0,  21,  53,     3.000,     1.342,     0.000,     0.000,     0.000,     0.000,   1,1,0
   448,'1 ',1,  21,  53,    33.500,    13.719,     0.000,     0.000,     0.000,     0.000,   1,1,0
   448,'2 ',0,  21,  53,    26.500,    11.661,     0.000,     0.000,     0.000,     0.000,   1,1,0
   448,'3 ',0,  21,  53,    10.299,     5.199,     0.000,     0.000,     0.000,     0.000,   1,1,0
   450,'1 ',0,  21,  52,    30.100,    15.400,     0.000,     0.000,     0.000,     0.000,   1,1,0
   450,'2 ',0,  21,  52,     0.000,     0.000,     0.000,     0.000,     0.000,     0.000,   1,1,0
   450,'3 ',0,  21,  52,     0.000,     0.000,     0.000,     0.000,     0.000,     0.000,   1,1,0
   452,'1 ',1,  21,  52,    27.550,    15.063,     0.000,     0.000,     0.000,     0.000,   1,1,0
   454,'2 ',1,  21,  52,     4.450,     2.438,     0.000,     0.000,     0.000,     0.000,   1,1,0
   457,'1 ',1,  21,  54,    12.000,     3.900,     0.000,     0.000,     0.000,     0.000,   2,1,0
   459,'1 ',1,  21,  53,    15.440,     6.520,     0.000,     0.000,     0.000,     0.000,   1,1,0
   459,'2 ',0,  21,  53,     5.276,     1.803,     0.000,     0.000,     0.000,     0.000,   1,1,0
   459,'3 ',0,  21,  53,     7.732,     3.575,     0.000,     0.000,     0.000,     0.000,   1,1,0
   460,'1 ',0,  21,  42,     8.300,     3.550,     0.000,     0.000,     0.000,     0.000,   1,1,0
   462,'1 ',0,  21,  53,    27.630,    11.790,     0.000,     0.000,     0.000,     0.000,   1,1,0
   463,'1 ',1,  21,  53,     5.030,     2.310,     0.000,     0.000,     0.000,     0.000,   1,1,0
   463,'2 ',0,  21,  53,    15.000,     5.000,     0.000,     0.000,     0.000,     0.000,   1,1,0
   467,'1 ',1,  21,  53,     7.500,     2.117,     0.000,     0.000,     0.000,     0.000,   1,1,0
   472,'1 ',1,  21,  53,     1.636,     0.751,     0.000,     0.000,     0.000,     0.000,   1,1,0
   472,'2 ',0,  21,  53,     0.000,     0.000,     0.000,     0.000,     0.000,     0.000,   1,1,0
   480,'1 ',1,  21,  53,     4.400,     2.200,     0.000,     0.000,     0.000,     0.000,   1,1,0
   481,'1 ',0,  21,  42,     4.700,     3.500,     0.000,     0.000,     0.000,     0.000,   1,1,0
   482,'1 ',1,  21,  53,     6.000,     3.600,     0.000,     0.000,     0.000,     0.000,   2,1,0
   520,'1 ',1,  21,  52,     9.500,     4.173,     0.000,     0.000,     0.000,     0.000,   1,1,0
   522,'1 ',1,  21,  52,     2.207,     1.012,     0.000,     0.000,     0.000,     0.000,   1,1,0
   523,'1 ',1,  21,  53,    11.000,     3.000,     0.000,     0.000,     0.000,     0.000,   3,1,0
   524,'1 ',1,  21,  52,     3.115,     1.427,     0.000,     0.000,     0.000,     0.000,   1,1,0
   525,'1 ',1,  21,  53,    11.000,     3.000,     0.000,     0.000,     0.000,     0.000,   3,1,0
   721,'1 ',1,  21,  53,    10.000,     3.500,     0.000,     0.000,     0.000,     0.000,   1,1,0
  1208,'1 ',1,   7,  26,     3.200,     1.800,     0.000,     0.000,     0.000,     0.000,   1,1,0
  1210,'1 ',1,   7,  26,    39.615,    16.345,     0.000,     0.000,     0.000,     0.000,   1,1,0
  1213,'1 ',1,   7,  26,     8.000,     2.500,     0.000,     0.000,     0.000,     0.000,   2,1,0
  1215,'1 ',1,   7,  27,     1.810,     0.710,     0.000,     0.000,     0.000,     0.000,   1,1,0
  1222,'1 ',1,   7,  27,    19.000,     7.800,     0.000,     0.000,     0.000,     0.000,   2,1,0
  1228,'1 ',1,   7,  27,     4.103,     1.585,     0.000,     0.000,     0.000,     0.000,   1,1,0
  1230,'1 ',1,   7,  26,    12.000,     4.704,     0.000,     0.000,     0.000,     0.000,   1,1,0
  1234,'1 ',1,   7,  27,     9.500,     2.594,     0.000,     0.000,     0.000,     0.000,   1,1,0
  1236,'1 ',1,   7,  27,    10.000,     3.921,     0.000,     0.000,     0.000,     0.000,   1,1,0
  1238,'1 ',1,   7,  25,    18.000,     6.749,     0.000,     0.000,     0.000,     0.000,   1,1,0
  1242,'1 ',1,   7,  27,     4.500,     1.764,     0.000,     0.000,     0.000,     0.000,   1,1,0
  1246,'1 ',1,   7,  27,     2.390,     0.937,     0.000,     0.000,     0.000,     0.000,   1,1,0
  1248,'1 ',1,   7,  25,    10.000,     3.750,     0.000,     0.000,     0.000,     0.000,   1,1,0
  1250,'1 ',1,   7,  25,    46.800,    25.552,     0.000,     0.000,     0.000,     0.000,   1,1,0
  1252,'1 ',1,   7,  26,    47.000,    11.881,     0.000,     0.000,     0.000,     0.000,   1,1,0
  1256,'1 ',1,   7,  25,    13.500,     5.755,     0.000,     0.000,     0.000,     0.000,   1,1,0
  1257,'1 ',0,   7,  25,     7.890,     4.177,     0.000,     0.000,     0.000,     0.000,   1,1,0
  1262,'1 ',1,   7,  27,     7.305,     2.810,     0.000,     0.000,     0.000,     0.000,   1,1,0
  1263,'1 ',1,   7,  27,     4.495,     1.685,     0.000,     0.000,     0.000,     0.000,   1,1,0
  1264,'1 ',1,   7,  26,    20.000,     7.842,     0.000,     0.000,     0.000,     0.000,   1,1,0
  1266,'1 ',1,   7,  27,     2.197,     0.861,     0.000,     0.000,     0.000,     0.000,   1,1,0
  1270,'1 ',1,   7,  27,     1.033,     0.405,     0.000,     0.000,     0.000,     0.000,   1,1,0
  1271,'1 ',1,   7,  25,     4.140,     2.072,     0.000,     0.000,     0.000,     0.000,   1,1,0
  1272,'1 ',1,   7,  26,     1.385,     0.646,     0.000,     0.000,     0.000,     0.000,   1,1,0
  1274,'1 ',1,   7,  27,    16.500,     3.322,     0.000,     0.000,     0.000,     0.000,   1,1,0
  1275,'1 ',1,   7,  25,     1.360,     0.907,     0.000,     0.000,     0.000,     0.000,   3,1,0
  1276,'1 ',1,   7,  27,     9.000,     4.744,     0.000,     0.000,     0.000,     0.000,   1,1,0
  1278,'1 ',1,   7,  27,    12.000,     4.705,     0.000,     0.000,     0.000,     0.000,   1,1,0
  1280,'1 ',1,   7,  27,    50.000,    15.000,     0.000,     0.000,     0.000,     0.000,   2,1,0
  1287,'1 ',1,   7,  25,     7.078,     1.057,     0.000,     0.000,     0.000,     0.000,   1,1,0
  1290,'1 ',1,   7,  26,     3.567,     1.398,     0.000,     0.000,     0.000,     0.000,   1,1,0
  1291,'1 ',1,   7,  25,     7.922,     2.281,     0.000,     0.000,     0.000,     0.000,   1,1,0
  1292,'1 ',1,   7,  25,    61.500,    25.449,     0.000,     0.000,     0.000,     0.000,   1,1,0
  1293,'1 ',1,   7,  25,    21.000,     9.368,     0.000,     0.000,     0.000,     0.000,   1,1,0
  1294,'1 ',1,   7,  26,    12.100,     6.200,     0.000,     0.000,     0.000,     0.000,   2,1,0
  1295,'1 ',1,   7,  25,    26.300,    10.883,     0.000,     0.000,     0.000,     0.000,   1,1,0
  1400,'1 ',1,   7,  27,    21.000,     6.900,     0.000,     0.000,     0.000,     0.000,   1,1,0
  1400,'S2',1,   7,  27,     0.084,     0.063,     0.000,     0.000,     0.000,     0.000,   1,1,0
  1500,'1 ',1,   7,  27,     4.779,     1.874,     0.000,     0.000,     0.000,     0.000,   1,1,0
  1501,'1 ',1,   7,  27,     4.779,     1.874,     0.000,     0.000,     0.000,     0.000,   1,1,0
  1502,'1 ',1,   7,  27,    70.000,    36.000,     0.000,     0.000,     0.000,     0.000,   1,1,0
  1503,'1 ',1,   7,  27,     2.000,     0.388,     0.000,     0.000,     0.000,     0.000,   1,1,0
  1504,'1 ',1,   7,  27,    63.000,    30.110,     0.000,     0.000,     0.000,     0.000,   2,1,0
  1505,'1 ',1,   7,  27,     4.632,     2.241,     0.000,     0.000,     0.000,     0.000,   1,1,0
  1507,'1 ',1,   7,  27,    27.000,    10.800,     0.000,     0.000,     0.000,     0.000,   1,1,0
  1508,'1 ',1,   7,  25,    11.743,     3.185,     0.000,     0.000,     0.000,     0.000,   1,1,0
  1514,'1 ',1,   7,  26,    22.800,     6.333,     0.000,     0.000,     0.000,     0.000,   2,1,0
  1530,'2 ',1,   7,  27,    29.000,     9.500,     0.000,     0.000,     0.000,     0.000,   1,1,0
  1543,'1 ',1,   7,  27,     3.590,     1.407,     0.000,     0.000,     0.000,     0.000,   1,1,0
  1544,'1 ',1,   7,  27,     4.344,     1.703,     0.000,     0.000,     0.000,     0.000,   1,1,0
  1547,'1 ',1,   7,  27,     0.158,     0.062,     0.000,     0.000,     0.000,     0.000,   1,1,0
  1548,'1 ',1,   7,  27,     2.159,     0.847,     0.000,     0.000,     0.000,     0.000,   1,1,0
  1549,'1 ',1,   7,  27,     0.800,     0.313,     0.000,     0.000,     0.000,     0.000,   1,1,0
  1560,'1 ',1,   7,  26,    19.649,     7.305,     0.000,     0.000,     0.000,     0.000,   1,1,0
  1561,'1 ',0,   7,  26,     0.000,     0.000,     0.000,     0.000,     0.000,     0.000,   1,1,0
  1562,'1 ',1,   7,  26,     6.778,     1.723,     0.000,     0.000,     0.000,     0.000,   1,1,0
  1566,'1 ',1,   7,  26,    19.097,     7.487,     0.000,     0.000,     0.000,     0.000,   1,1,0
  1568,'1 ',1,   7,  26,     2.108,     0.825,     0.000,     0.000,     0.000,     0.000,   1,1,0
  1570,'1 ',1,   7,  26,     3.820,     1.498,     0.000,     0.000,     0.000,     0.000,   1,1,0
  1572,'1 ',1,   7,  26,     1.975,     0.775,     0.000,     0.000,     0.000,     0.000,   1,1,0
  1606,'1 ',1,   7,  27,    12.000,     6.000,     0.000,     0.000,     0.000,     0.000,   3,1,0
  1620,'1 ',1,   7,  27,    30.805,    12.078,     0.000,     0.000,     0.000,     0.000,   1,1,0
  1634,'1 ',1,   7,  27,     1.719,     0.573,     0.000,     0.000,     0.000,     0.000,   3,1,0
  1640,'1 ',1,   7,  27,    10.081,     3.436,     0.000,     0.000,     0.000,     0.000,   3,1,0
  1644,'1 ',1,   7,  26,    15.100,     6.900,     0.000,     0.000,     0.000,     0.000,   2,1,0
  1647,'1 ',1,   7,  26,    15.000,     5.000,     0.000,     0.000,     0.000,     0.000,   2,1,0
  1818,'1 ',1,   7,  27,    14.000,     6.000,     0.000,     0.000,     0.000,     0.000,   2,1,0
  1840,'1 ',1,   7,  27,     3.590,     1.407,     0.000,     0.000,     0.000,     0.000,   1,1,0
  1841,'1 ',1,   7,  27,     1.358,     0.531,     0.000,     0.000,     0.000,     0.000,   1,1,0
  1850,'1 ',1,   7,  26,    13.351,     5.290,     0.000,     0.000,     0.000,     0.000,   1,1,0
  1851,'1 ',0,   7,  26,     0.000,     0.000,     0.000,     0.000,     0.000,     0.000,   1,1,0
  1852,'1 ',1,   7,  26,    15.622,     6.088,     0.000,     0.000,     0.000,     0.000,   1,1,0
  1870,'1 ',1,   7,  26,     8.300,     2.900,     0.000,     0.000,     0.000,     0.000,   2,1,0
  2200,'1 ',1,   5,  56,    45.200,    20.000,     0.000,     0.000,     0.000,     0.000,   1,1,0
  2204,'1 ',1,   5,  22,    28.500,    15.517,     0.000,     0.000,     0.000,     0.000,   1,1,0
  2209,'SC',1,   5,  24,     0.000,     0.000,     0.000,     0.000,     0.000,     0.000,  10,1,0
  2210,'1 ',1,   5,  22,    32.200,    13.500,     0.000,     0.000,     0.000,     0.000,   1,1,0
  2211,'SC',1,   5,  24,     0.000,     0.000,     0.000,     0.000,     0.000,     0.000,  10,1,0
  2212,'1 ',1,   5,  22,    20.500,    10.000,     0.000,     0.000,     0.000,     0.000,   1,1,0
  2214,'SC',1,   5,  21,     0.000,     0.000,     0.000,     0.000,     0.000,     0.000,   1,1,0
  2215,'1 ',1,   5,  21,    40.000,    17.000,     0.000,     0.000,     0.000,     0.000,   2,1,0
  2216,'1 ',1,   5,  21,    16.000,     8.126,     0.000,     0.000,     0.000,     0.000,   1,1,0
  2220,'1 ',1,   5,  22,    23.000,     8.944,     0.000,     0.000,     0.000,     0.000,   2,1,0
  2222,'1 ',1,   5,  24,     5.800,     3.900,     0.000,     0.000,     0.000,     0.000,   1,1,0
  2224,'1 ',1,   5,  23,    58.000,    31.498,     0.000,     0.000,     0.000,     0.000,   1,1,0
  2225,'1 ',1,   5,  23,    20.000,     4.541,     0.000,     0.000,     0.000,     0.000,   2,1,0
  2226,'1 ',1,   5,  21,    23.200,    14.540,     0.000,     0.000,     0.000,     0.000,   1,1,0
  2227,'1 ',1,   5,  21,    12.100,     5.266,     0.000,     0.000,     0.000,     0.000,   2,1,0
  2229,'1 ',1,   5,  22,    30.717,     9.290,     0.000,     0.000,     0.000,     0.000,   1,1,0
  2230,'1 ',1,   5,  21,    42.200,    22.968,     0.000,     0.000,     0.000,     0.000,   1,1,0
  2232,'1 ',1,   5,  24,     8.400,     5.315,     0.000,     0.000,     0.000,     0.000,   1,1,0
  2233,'1 ',1,   5,  54,    35.700,    16.065,     0.000,     0.000,     0.000,     0.000,   1,1,0
  2234,'1 ',1,   5,  24,    20.500,    11.500,     0.000,     0.000,     0.000,     0.000,   1,1,0
  2235,'1 ',1,   5,  24,     9.500,     6.011,     0.000,     0.000,     0.000,     0.000,   1,1,0
  2236,'1 ',1,   5,  22,    15.000,     4.161,     0.000,     0.000,     0.000,     0.000,   1,1,0
  2238,'1 ',1,   5,  22,     8.400,     4.726,     0.000,     0.000,     0.000,     0.000,   1,1,0
  2240,'1 ',1,   5,  22,     5.000,     3.000,     0.000,     0.000,     0.000,     0.000,   1,1,0
  2242,'1 ',1,   5,  56,    19.000,    10.000,     0.000,     0.000,     0.000,     0.000,   1,1,0
  2243,'1 ',1,   5,  56,    19.000,    10.000,     0.000,     0.000,     0.000,     0.000,   1,1,0
  2244,'1 ',1,   5,  21,    19.273,     8.837,     0.000,     0.000,     0.000,     0.000,   1,1,0
  2248,'1 ',1,   5,  56,    20.000,     9.200,     0.000,     0.000,     0.000,     0.000,   1,1,0
  2249,'1 ',1,   5,  56,    24.200,     7.879,     0.000,     0.000,     0.000,     0.000,   1,1,0
  2252,'1 ',1,   5,  23,    57.000,    27.557,     0.000,     0.000,     0.000,     0.000,   1,1,0
  2253,'1 ',1,   5,  23,     7.000,     3.000,     0.000,     0.000,     0.000,     0.000,   2,1,0
  2254,'1 ',1,   5,  24,     6.000,     3.200,     0.000,     0.000,     0.000,     0.000,   1,1,0
  2256,'SC',1,   5,  22,     0.000,     0.000,     0.000,     0.000,     0.000,     0.000,   1,1,0
  2257,'1 ',1,   5,  22,    11.179,     3.797,     0.000,     0.000,     0.000,     0.000,   1,1,0
  2258,'1 ',1,   5,  56,    10.500,     4.745,     0.000,     0.000,     0.000,     0.000,   1,1,0
  2259,'1 ',1,   5,  56,    18.000,     5.385,     0.000,     0.000,     0.000,     0.000,   1,1,0
  2260,'1 ',1,   5,  22,     7.100,     3.000,     0.000,     0.000,     0.000,     0.000,   1,1,0
  2263,'1 ',1,   5,  22,     3.200,     1.463,     0.000,     0.000,     0.000,     0.000,   2,1,0
  2264,'1 ',0,   5,  21,    20.298,    11.013,     0.000,     0.000,     0.000,     0.000,   1,1,0
  2264,'SC',1,   5,  21,     0.000,     0.000,     0.000,     0.000,     0.000,     0.000,   1,1,0
...
0 / END OF LOAD DATA, BEGIN FIXED SHUNT DATA
  3213,'1 ',1,     0.000,    24.000
  3224,'1 ',1,     0.000,    12.000
  3229,'1 ',1,     0.000,    12.000
  3232,'1 ',1,     0.000,    12.000
  3260,'1 ',1,     0.000,    12.000
  3293,'1 ',1,     0.000,    12.000
  3294,'1 ',1,     0.000,    14.400
  3334,'1 ',1,     0.000,    12.000
  3336,'1 ',1,     0.000,    12.000
  3338,'1 ',1,     0.000,    24.000
  3342,'1 ',1,     0.000,    12.000
  3350,'1 ',1,     0.000,    12.000
  3360,'1 ',1,     0.000,    12.000
  3372,'1 ',1,     0.000,    18.000
  3375,'1 ',1,     0.000,    12.000
  3380,'1 ',1,     0.000,    18.000
  3382,'1 ',1,     0.000,    24.000
  3410,'1 ',1,     0.000,     9.600
  3448,'1 ',1,     0.000,    12.000
  3453,'1 ',1,     0.000,    12.000
  3466,'1 ',1,     0.000,    24.000
  3471,'1 ',1,     0.000,    12.000
  3478,'1 ',1,     0.000,    12.000
 92401,'1 ',1,     0.000,    15.000
0 / END OF FIXED SHUNT DATA, BEGIN GENERATOR DATA
    30,'1 ',   906.837,   240.911,  9999.000, -9999.000,1.05000,     0,  1000.000, 1.26500E-2, 1.44500E-1, 0.00000E+0, 0.00000E+0,1.00000,0,  100.0,  1100.000, -1100.000,  10,1.0000
   102,'1 ',   110.000,    16.146,    60.000,   -60.000,1.00000,     0,   118.000, 0.00000E+0, 2.00000E-1, 0.00000E+0, 0.00000E+0,1.00000,1,  100.0,  9999.000, -9999.000,   6,1.0000
   104,'1 ',   110.000,    16.146,    60.000,   -60.000,1.00000,     0,   118.000, 0.00000E+0, 2.00000E-1, 0.00000E+0, 0.00000E+0,1.00000,1,  100.0,  9999.000, -9999.000,   6,1.0000
   106,'1 ',   110.000,    16.146,    60.000,   -60.000,1.00000,     0,   118.000, 0.00000E+0, 2.00000E-1, 0.00000E+0, 0.00000E+0,1.00000,1,  100.0,  9999.000, -9999.000,   6,1.0000
   108,'1 ',   110.000,    16.146,    60.000,   -60.000,1.00000,     0,   118.000, 0.00000E+0, 2.00000E-1, 0.00000E+0, 0.00000E+0,1.00000,1,  100.0,  9999.000, -9999.000,   6,1.0000
   190,'9 ',   155.000,    11.657,    99.600,   -40.800,1.00000,   259,   184.500, 0.00000E+0, 1.88000E-1, 0.00000E+0, 0.00000E+0,1.00000,1,  100.0,   165.000, -9999.000,   8,1.0000
   191,'10',   155.000,    11.657,    99.600,   -40.800,1.00000,   259,   184.500, 0.00000E+0, 1.88000E-1, 0.00000E+0, 0.00000E+0,1.00000,1,  100.0,   165.000, -9999.000,   8,1.0000
   192,'11',   130.000,    11.657,   114.000,   -80.000,1.00000,   259,   190.800, 0.00000E+0, 1.88000E-1, 0.00000E+0, 0.00000E+0,1.00000,1,  100.0,   140.000,    80.000,   8,1.0000
   201,'1 ',    18.000,    15.000,    15.000,   -14.000,1.05000,     0,    39.500, 0.00000E+0, 1.30000E-1, 0.00000E+0, 0.00000E+0,1.00000,1,  100.0,    20.000,     0.000,   4,1.0000
   202,'2 ',    19.999,    16.889,    20.000,   -14.000,1.05000,     0,    39.500, 0.00000E+0, 1.30000E-1, 0.00000E+0, 0.00000E+0,1.00000,1,  100.0,  9999.000,     0.000,   4,1.0000
   203,'3 ',    19.999,    16.889,    20.000,   -14.000,1.05000,     0,    39.500, 0.00000E+0, 1.30000E-1, 0.00000E+0, 0.00000E+0,1.00000,1,  100.0,  9999.000,     0.000,   4,1.0000
   204,'4 ',    20.002,    16.889,    20.000,   -14.000,1.05000,     0,    39.500, 0.00000E+0, 1.30000E-1, 0.00000E+0, 0.00000E+0,1.00000,1,  100.0,    20.000,     0.000,   4,1.0000
   205,'5 ',    38.000,    19.191,    22.000,    -6.000,1.05000,     0,    45.400, 0.00000E+0, 1.66000E-1, 0.00000E+0, 0.00000E+0,1.00000,1,  100.0,    38.200,     0.000,   4,1.0000
   206,'6 ',    32.000,    16.319,    20.000,    -6.000,1.03000,     0,    45.400, 0.00000E+0, 1.66000E-1, 0.00000E+0, 0.00000E+0,1.00000,1,  100.0,    38.200,     0.000,   4,1.0000
   207,'7 ',    38.000,     6.974,    28.180,   -21.270,1.00000,   216,    48.200, 0.00000E+0, 1.69000E-1, 0.00000E+0, 0.00000E+0,1.00000,1,  100.0,    49.000,     0.000,   8,1.0000
   208,'8 ',    38.000,     6.974,    28.181,   -21.273,1.00000,   216,    48.200, 0.00000E+0, 1.69000E-1, 0.00000E+0, 0.00000E+0,1.00000,1,  100.0,    49.000,     0.000,   8,1.0000
   209,'9 ',    32.000,     6.974,    30.000,   -17.656,1.00000,   216,    50.350, 0.00000E+0, 1.83000E-1, 0.00000E+0, 0.00000E+0,1.00000,1,  100.0,    50.350,     0.000,   8,1.0000
   219,'21',    18.000,     7.511,    15.000,   -10.000,1.05000,     0,    31.500, 0.00000E+0, 1.50000E-1, 0.00000E+0, 0.00000E+0,1.00000,0,  100.0,    21.000, -9999.000,   4,1.0000
   219,'22',    18.000,     7.511,    15.000,   -10.000,1.05000,     0,    31.500, 0.00000E+0, 1.50000E-1, 0.00000E+0, 0.00000E+0,1.00000,0,  100.0,    21.000,     0.000,   4,1.0000
   232,'1 ',    -0.281,    -0.120,    -0.120,    -0.120,1.00000,     0,     0.336, 0.00000E+0, 1.57330E-1, 0.00000E+0, 0.00000E+0,1.00000,0,  100.0,  9999.000, -9999.000,   1,1.0000
   232,'2 ',    -0.421,    -0.179,    -0.179,    -0.179,1.00000,     0,     0.503, 0.00000E+0, 1.57330E-1, 0.00000E+0, 0.00000E+0,1.00000,0,  100.0,  9999.000, -9999.000,   1,1.0000
   232,'3 ',    -0.561,    -0.239,    -0.239,    -0.239,1.00000,     0,     0.671, 0.00000E+0, 1.57330E-1, 0.00000E+0, 0.00000E+0,1.00000,0,  100.0,  9999.000, -9999.000,   1,1.0000
   232,'4 ',   -10.804,    -5.000,    -5.000,    -5.000,1.00000,     0,    10.800, 0.00000E+0, 1.57330E-1, 0.00000E+0, 0.00000E+0,1.00000,0,  100.0,  9999.000, -9999.000,   1,1.0000
   234,'1 ',    20.000,     9.850,    20.150,    -5.716,1.03000,     0,    31.500, 0.00000E+0, 1.50000E-1, 0.00000E+0, 0.00000E+0,1.00000,0,  100.0,    21.000, -9999.000,   4,1.0000
   234,'2 ',    15.000,     7.472,    20.150,    -5.716,1.03000,     0,    27.000, 0.00000E+0, 1.50000E-1, 0.00000E+0, 0.00000E+0,1.00000,0,  100.0,    21.000,     0.000,   4,1.0000
   242,'1 ',    -0.440,    -0.225,    -0.225,    -0.225,1.00000,     0,     0.543, 0.00000E+0, 1.57330E-1, 0.00000E+0, 0.00000E+0,1.00000,0,  100.0,  9999.000, -9999.000,   1,1.0000
   242,'2 ',    -0.659,    -0.338,    -0.338,    -0.338,1.00000,     0,     0.815, 0.00000E+0, 1.57330E-1, 0.00000E+0, 0.00000E+0,1.00000,0,  100.0,  9999.000, -9999.000,   1,1.0000
   242,'3 ',    -0.879,    -0.450,    -0.450,    -0.450,1.00000,     0,     1.087, 0.00000E+0, 1.57330E-1, 0.00000E+0, 0.00000E+0,1.00000,0,  100.0,  9999.000, -9999.000,   1,1.0000
   242,'4 ',   -11.962,    -3.730,    -3.730,    -3.730,1.00000,     0,    12.190, 0.00000E+0, 1.57330E-1, 0.00000E+0, 0.00000E+0,1.00000,0,  100.0,  9999.000, -9999.000,   1,1.0000
   251,'1 ',    20.000,     0.852,    15.000,    -6.000,1.05000,     0,    29.200, 0.00000E+0, 2.10000E-1, 0.00000E+0, 0.00000E+0,1.00000,1,  100.0,    23.400,     0.000,   6,1.0000
   252,'2 ',    20.000,     0.852,    15.000,    -6.000,1.05000,     0,    29.200, 0.00000E+0, 2.10000E-1, 0.00000E+0, 0.00000E+0,1.00000,1,  100.0,    23.400,     0.000,   6,1.0000
   304,'1 ',     0.000,     0.000,     7.000,    -7.000,1.00000,     0,    20.000, 0.00000E+0, 1.80000E-1, 0.00000E+0, 0.00000E+0,1.00000,0,  100.0,  9999.000, -9999.000,   4,1.0000
   304,'2 ',     0.000,     0.000,     7.000,    -7.000,1.00000,     0,    20.000, 0.00000E+0, 1.80000E-1, 0.00000E+0, 0.00000E+0,1.00000,0,  100.0,  9999.000, -9999.000,   4,1.0000
   406,'1 ',    25.500,   -10.000,    15.000,   -10.000,1.00000,     0,    32.250, 0.00000E+0, 1.50000E-1, 0.00000E+0, 0.00000E+0,1.00000,0,  100.0,  9999.000, -9999.000,   4,1.0000
   406,'2 ',    25.000,     1.279,    10.000,    -5.000,1.00000,     0,    22.000, 0.00000E+0, 1.52000E-1, 0.00000E+0, 0.00000E+0,1.00000,0,  100.0,  9999.000, -9999.000,   4,1.0000
   409,'1 ',    11.500,     2.355,    12.000,    -7.000,1.00000,     0,    22.500, 0.00000E+0, 1.80000E-1, 0.00000E+0, 0.00000E+0,1.00000,0,  100.0,  9999.000, -9999.000,   4,1.0000
   410,'1 ',    -0.681,    -0.288,    -0.288,    -0.288,1.00000,     0,     0.814, 0.00000E+0, 1.57330E-1, 0.00000E+0, 0.00000E+0,1.00000,0,  100.0,  9999.000, -9999.000,   1,1.0000
   410,'2 ',    -1.022,    -0.432,    -0.432,    -0.432,1.00000,     0,     1.220, 0.00000E+0, 1.57330E-1, 0.00000E+0, 0.00000E+0,1.00000,0,  100.0,  9999.000, -9999.000,   1,1.0000
   410,'3 ',    -1.362,    -0.576,    -0.576,    -0.576,1.00000,     0,     1.627, 0.00000E+0, 1.57330E-1, 0.00000E+0, 0.00000E+0,1.00000,0,  100.0,  9999.000, -9999.000,   1,1.0000
   410,'4 ',   -19.073,    -8.800,    -8.800,    -8.800,1.00000,     0,    28.000, 0.00000E+0, 1.57330E-1, 0.00000E+0, 0.00000E+0,1.00000,0,  100.0,  9999.000, -9999.000,   1,1.0000
   420,'1 ',    -1.004,    -0.428,    -0.428,    -0.428,1.00000,     0,     1.201, 0.00000E+0, 1.57330E-1, 0.00000E+0, 0.00000E+0,1.00000,0,  100.0,  9999.000, -9999.000,   1,1.0000
   420,'2 ',    -1.506,    -0.642,    -0.642,    -0.642,1.00000,     0,     1.801, 0.00000E+0, 1.57330E-1, 0.00000E+0, 0.00000E+0,1.00000,0,  100.0,  9999.000, -9999.000,   1,1.0000
   420,'3 ',    -2.008,    -0.856,    -0.856,    -0.856,1.00000,     0,     2.402, 0.00000E+0, 1.57330E-1, 0.00000E+0, 0.00000E+0,1.00000,0,  100.0,  9999.000, -9999.000,   1,1.0000
   420,'4 ',   -33.295,   -10.000,   -10.000,   -10.000,1.00000,     0,    34.730, 0.00000E+0, 1.57330E-1, 0.00000E+0, 0.00000E+0,1.00000,0,  100.0,  9999.000, -9999.000,   1,1.0000
   422,'1 ',    16.000,     2.292,    13.000,    -7.000,0.98000,     0,    26.150, 0.00000E+0, 1.70000E-1, 0.00000E+0, 0.00000E+0,1.00000,0,  100.0,    20.500,     0.000,   4,1.0000
   437,'1 ',    20.000,     9.289,    15.000,    -5.000,1.05000,     0,    30.400, 0.00000E+0, 2.01000E-1, 0.00000E+0, 0.00000E+0,1.00000,1,  100.0,    25.000,     0.000,   8,1.0000
   437,'2 ',    20.000,     3.800,    15.000,    -5.000,1.05000,     0,    30.400, 0.00000E+0, 2.01000E-1, 0.00000E+0, 0.00000E+0,1.00000,0,  100.0,    25.000,     0.000,   8,1.0000
   438,'2 ',    20.000,     4.441,    15.000,    -5.000,1.05000,     0,    28.000, 0.00000E+0, 1.86000E-1, 0.00000E+0, 0.00000E+0,1.00000,0,  100.0,    22.600,     0.000,   8,1.0000
   440,'1 ',    -0.434,    -0.325,    -0.325,    -0.325,1.00000,     0,     0.596, 0.00000E+0, 1.57330E-1, 0.00000E+0, 0.00000E+0,1.00000,0,  100.0,  9999.000, -9999.000,   1,1.0000
   440,'2 ',    -0.650,    -0.488,    -0.488,    -0.488,1.00000,     0,     0.894, 0.00000E+0, 1.57330E-1, 0.00000E+0, 0.00000E+0,1.00000,0,  100.0,  9999.000, -9999.000,   1,1.0000
   440,'3 ',    -0.867,    -0.650,    -0.650,    -0.650,1.00000,     0,     1.192, 0.00000E+0, 1.57330E-1, 0.00000E+0, 0.00000E+0,1.00000,0,  100.0,  9999.000, -9999.000,   1,1.0000
   440,'4 ',   -12.238,    -4.000,    -4.000,    -4.000,1.00000,     0,    20.700, 0.00000E+0, 1.57330E-1, 0.00000E+0, 0.00000E+0,1.00000,0,  100.0,  9999.000, -9999.000,   1,1.0000
   442,'1 ',    -0.138,    -0.055,    -0.055,    -0.055,1.00000,     0,     0.164, 0.00000E+0, 1.57330E-1, 0.00000E+0, 0.00000E+0,1.00000,0,  100.0,  9999.000, -9999.000,   1,1.0000
   442,'2 ',    -0.208,    -0.082,    -0.082,    -0.082,1.00000,     0,     0.246, 0.00000E+0, 1.57330E-1, 0.00000E+0, 0.00000E+0,1.00000,0,  100.0,  9999.000, -9999.000,   1,1.0000
   442,'3 ',    -0.277,    -0.110,    -0.110,    -0.110,1.00000,     0,     0.327, 0.00000E+0, 1.57330E-1, 0.00000E+0, 0.00000E+0,1.00000,0,  100.0,  9999.000, -9999.000,   1,1.0000
   442,'4 ',    -6.064,    -3.000,    -3.000,    -3.000,1.00000,     0,     6.320, 0.00000E+0, 1.57330E-1, 0.00000E+0, 0.00000E+0,1.00000,0,  100.0,  9999.000, -9999.000,   1,1.0000
   444,'1 ',    -0.444,    -0.240,    -0.240,    -0.240,1.00000,     0,     0.555, 0.00000E+0, 1.57330E-1, 0.00000E+0, 0.00000E+0,1.00000,0,  100.0,  9999.000, -9999.000,   1,1.0000
   444,'2 ',    -0.665,    -0.359,    -0.359,    -0.359,1.00000,     0,     0.832, 0.00000E+0, 1.57330E-1, 0.00000E+0, 0.00000E+0,1.00000,0,  100.0,  9999.000, -9999.000,   1,1.0000
   444,'3 ',    -0.887,    -0.479,    -0.479,    -0.479,1.00000,     0,     1.109, 0.00000E+0, 1.57330E-1, 0.00000E+0, 0.00000E+0,1.00000,0,  100.0,  9999.000, -9999.000,   1,1.0000
   444,'4 ',   -14.112,    -5.900,    -5.900,    -5.900,1.00000,     0,    13.100, 0.00000E+0, 1.57330E-1, 0.00000E+0, 0.00000E+0,1.00000,0,  100.0,  9999.000, -9999.000,   1,1.0000
   445,'1 ',    -0.320,    -0.240,    -0.240,    -0.240,1.01000,     0,     0.440, 0.00000E+0, 1.57330E-1, 0.00000E+0, 0.00000E+0,1.00000,0,  100.0,  9999.000, -9999.000,   1,1.0000
   445,'2 ',    -0.480,    -0.360,    -0.360,    -0.360,1.01000,     0,     0.660, 0.00000E+0, 1.57330E-1, 0.00000E+0, 0.00000E+0,1.00000,0,  100.0,  9999.000, -9999.000,   1,1.0000
   445,'3 ',    -0.640,    -0.480,    -0.480,    -0.480,1.01000,     0,     0.880, 0.00000E+0, 1.57330E-1, 0.00000E+0, 0.00000E+0,1.00000,0,  100.0,  9999.000, -9999.000,   1,1.0000
   445,'4 ',    -8.489,    -2.800,    -2.800,    -2.800,1.01000,     0,     9.020, 0.00000E+0, 1.57330E-1, 0.00000E+0, 0.00000E+0,1.00000,0,  100.0,  9999.000, -9999.000,   1,1.0000
   447,'1 ',    -0.960,    -0.544,    -0.544,    -0.544,1.00000,     0,     1.214, 0.00000E+0, 1.57330E-1, 0.00000E+0, 0.00000E+0,1.00000,0,  100.0,  9999.000, -9999.000,   1,1.0000
   447,'2 ',    -1.440,    -0.816,    -0.816,    -0.816,1.00000,     0,     1.821, 0.00000E+0, 1.57330E-1, 0.00000E+0, 0.00000E+0,1.00000,0,  100.0,  9999.000, -9999.000,   1,1.0000
   447,'3 ',    -1.920,    -1.088,    -1.088,    -1.088,1.00000,     0,     2.428, 0.00000E+0, 1.57330E-1, 0.00000E+0, 0.00000E+0,1.00000,0,  100.0,  9999.000, -9999.000,   1,1.0000
   447,'4 ',   -26.570,   -11.300,   -11.300,   -11.300,1.00000,     0,    24.882, 0.00000E+0, 1.57330E-1, 0.00000E+0, 0.00000E+0,1.00000,0,  100.0,  9999.000, -9999.000,   1,1.0000
   448,'1 ',    -0.740,    -0.315,    -0.315,    -0.315,1.00000,     0,     0.885, 0.00000E+0, 1.57330E-1, 0.00000E+0, 0.00000E+0,1.00000,0,  100.0,  9999.000, -9999.000,   1,1.0000
   448,'2 ',    -1.110,    -0.473,    -0.473,    -0.473,1.00000,     0,     1.327, 0.00000E+0, 1.57330E-1, 0.00000E+0, 0.00000E+0,1.00000,0,  100.0,  9999.000, -9999.000,   1,1.0000
   448,'3 ',   -19.404,    -2.000,    -2.000,    -2.000,1.00000,     0,    20.000, 0.00000E+0, 1.57330E-1, 0.00000E+0, 0.00000E+0,1.00000,0,  100.0,  9999.000, -9999.000,   1,1.0000
   448,'4 ',    -8.820,    -1.500,    -1.500,    -1.500,1.00000,     0,    31.500, 0.00000E+0, 1.57330E-1, 0.00000E+0, 0.00000E+0,1.00000,0,  100.0,  9999.000, -9999.000,   1,1.0000
   450,'1 ',    -0.195,    -0.082,    -0.082,    -0.082,1.00000,     0,     0.232, 0.00000E+0, 1.57330E-1, 0.00000E+0, 0.00000E+0,1.00000,0,  100.0,  9999.000, -9999.000,   1,1.0000
   450,'2 ',    -0.292,    -0.122,    -0.122,    -0.122,1.00000,     0,     0.348, 0.00000E+0, 1.57330E-1, 0.00000E+0, 0.00000E+0,1.00000,0,  100.0,  9999.000, -9999.000,   1,1.0000
   450,'3 ',    -0.400,    -0.200,    -0.200,    -0.200,1.00000,     0,     0.464, 0.00000E+0, 1.57330E-1, 0.00000E+0, 0.00000E+0,1.00000,0,  100.0,  9999.000, -9999.000,   1,1.0000
   450,'4 ',    -5.071,    -2.100,    -2.100,    -2.100,1.00000,     0,     5.750, 0.00000E+0, 1.57330E-1, 0.00000E+0, 0.00000E+0,1.00000,0,  100.0,  9999.000, -9999.000,   1,1.0000
   453,'1 ',     3.000,     1.628,     2.520,    -2.079,1.05000,     0,     6.300, 0.00000E+0, 9.99990E+4, 0.00000E+0, 0.00000E+0,1.00000,1,  100.0,     6.300,     0.000,   1,1.0000
   459,'1 ',    -0.322,    -0.127,    -0.127,    -0.127,1.00000,     0,     0.380, 0.00000E+0, 1.57330E-1, 0.00000E+0, 0.00000E+0,1.00000,0,  100.0,  9999.000, -9999.000,   1,1.0000
   459,'2 ',    -0.482,    -0.191,    -0.191,    -0.191,1.00000,     0,     0.571, 0.00000E+0, 1.57330E-1, 0.00000E+0, 0.00000E+0,1.00000,0,  100.0,  9999.000, -9999.000,   1,1.0000
   459,'3 ',    -0.643,    -0.254,    -0.254,    -0.254,1.00000,     0,     0.761, 0.00000E+0, 1.57330E-1, 0.00000E+0, 0.00000E+0,1.00000,0,  100.0,  9999.000, -9999.000,   1,1.0000
   459,'4 ',    -5.843,    -1.800,    -1.800,    -1.800,1.00000,     0,     7.797, 0.00000E+0, 1.57330E-1, 0.00000E+0, 0.00000E+0,1.00000,0,  100.0,  9999.000, -9999.000,   1,1.0000
   463,'1 ',     1.350,     0.729,     0.729,    -0.729,1.00000,     0,     1.688, 0.00000E+0, 1.57330E-1, 0.00000E+0, 0.00000E+0,1.00000,0,  100.0,  9999.000, -9999.000,   1,1.0000
   463,'2 ',     2.025,     1.093,     1.093,    -1.093,1.00000,     0,     2.531, 0.00000E+0, 1.57330E-1, 0.00000E+0, 0.00000E+0,1.00000,0,  100.0,  9999.000, -9999.000,   1,1.0000
   463,'3 ',     2.700,     1.458,     1.458,    -1.458,1.00000,     0,     3.375, 0.00000E+0, 1.57330E-1, 0.00000E+0, 0.00000E+0,1.00000,0,  100.0,  9999.000, -9999.000,   1,1.0000
   463,'4 ',   -15.986,    -7.000,    -7.000,    -7.000,1.00000,     0,    34.595, 0.00000E+0, 1.57330E-1, 0.00000E+0, 0.00000E+0,1.00000,0,  100.0,  9999.000, -9999.000,   1,1.0000
   464,'1 ',    15.000,     8.909,    10.000,    -5.000,1.00000,     0,    21.000, 0.00000E+0, 1.60000E-1, 0.00000E+0, 0.00000E+0,1.00000,0,  100.0,    15.000,     0.000,   4,1.0000
   466,'1 ',    15.000,     3.842,    10.000,    -5.000,1.00000,     0,    22.500, 0.00000E+0, 1.60000E-1, 0.00000E+0, 0.00000E+0,1.00000,0,  100.0,    15.000,     0.000,   4,1.0000
   468,'1 ',    15.000,     3.770,    15.000,    -5.000,1.02000,     0,    22.000, 0.00000E+0, 1.70000E-1, 0.00000E+0, 0.00000E+0,1.00000,1,  100.0,    15.000,     0.000,   4,1.0000
   472,'1 ',     0.000,     0.000,  9999.000, -9999.000,1.00000,     0,    14.000, 0.00000E+0, 1.39000E-1, 0.00000E+0, 0.00000E+0,1.00000,0,  100.0,  9999.000, -9999.000,   1,1.0000
   472,'2 ',     0.000,     0.000,  9999.000, -9999.000,1.00000,     0,    14.000, 0.00000E+0, 1.39000E-1, 0.00000E+0, 0.00000E+0,1.00000,0,  100.0,  9999.000, -9999.000,   1,1.0000
   476,'1 ',     6.000,    -0.074,    20.700,   -16.560,1.05000,     0,    34.500, 0.00000E+0, 1.86500E-1, 0.00000E+0, 0.00000E+0,1.00000,1,  100.0,    25.000,     0.000,   1,1.0000
   491,'1 ',    35.000,     5.662,    30.000,   -12.000,1.05000,     0,    45.400, 0.00000E+0, 2.04000E-1, 0.00000E+0, 0.00000E+0,1.00000,1,  100.0,    39.300,     0.000,   8,1.0000
   492,'2 ',    35.000,     5.662,    30.000,   -12.000,1.05000,     0,    45.400, 0.00000E+0, 2.04000E-1, 0.00000E+0, 0.00000E+0,1.00000,1,  100.0,    39.300,     0.000,   8,1.0000
   493,'1 ',    50.000,    10.372,    45.000, -9999.000,1.05000,     0,    84.200, 0.00000E+0, 1.92000E-1, 0.00000E+0, 0.00000E+0,1.00000,1,  100.0,    67.000,     0.000,   8,1.0000
   523,'1 ',   100.000,   -11.679,    90.000,   -60.000,1.00000,     0,   145.000, 0.00000E+0, 1.70000E-1, 0.00000E+0, 0.00000E+0,1.00000,1,  100.0,   130.000,    50.000,   1,1.0000
   525,'2 ',   100.000,   -14.435,    90.000,   -60.000,1.00000,     0,   145.000, 0.00000E+0, 1.70000E-1, 0.00000E+0, 0.00000E+0,1.00000,0,  100.0,   130.000,    50.000,   1,1.0000
   661,'1 ',    37.000,     4.882,    25.000,   -20.000,1.02000,     0,    45.000, 0.00000E+0, 2.04000E-1, 0.00000E+0, 0.00000E+0,1.00000,1,  100.0,  9999.000, -9999.000,   4,1.0000
   662,'2 ',    37.000,     4.882,    25.000,   -20.000,1.02000,     0,    45.000, 0.00000E+0, 2.04000E-1, 0.00000E+0, 0.00000E+0,1.00000,1,  100.0, -9999.000, -9999.000,   4,1.0000
   670,'1 ',     9.000,    -2.639,     8.200,    -6.000,1.00000,     0,    12.500, 0.00000E+0, 1.34000E-1, 0.00000E+0, 0.00000E+0,1.00000,0,  100.0,    10.000,     2.000,   1,1.0000
   671,'2 ',     9.000,    -2.639,     8.200,    -6.000,1.00000,     0,    12.500, 0.00000E+0, 1.34000E-1, 0.00000E+0, 0.00000E+0,1.00000,0,  100.0,    10.000,     2.000,   1,1.0000
   673,'3 ',     9.000,    -2.639,     8.200,    -6.000,1.00000,     0,    12.500, 0.00000E+0, 1.34000E-1, 0.00000E+0, 0.00000E+0,1.00000,0,  100.0,    10.000,     2.000,   1,1.0000
   674,'4 ',     9.000,    -2.639,     8.200,    -6.000,1.00000,     0,    12.500, 0.00000E+0, 1.34000E-1, 0.00000E+0, 0.00000E+0,1.00000,0,  100.0,    10.000,     2.000,   1,1.0000
  1600,'6 ',   120.000,    -6.554,    82.500,   -67.500,1.05000,     0,   156.470, 0.00000E+0, 1.70000E-1, 0.00000E+0, 0.00000E+0,1.00000,1,  100.0,   130.000,    40.000,   8,1.0000
  1601,'1 ',    40.000,     5.788,    19.875,   -13.375,1.02000,     0,    56.760, 0.00000E+0, 2.06000E-1, 0.00000E+0, 0.00000E+0,1.00000,1,  100.0,    51.000,    15.000,   8,1.0000
  1602,'2 ',    40.000,    -1.318,    19.875,   -13.375,1.05000,     0,    56.760, 0.00000E+0, 2.06000E-1, 0.00000E+0, 0.00000E+0,1.00000,1,  100.0,    51.000,    15.000,   8,1.0000
...